<?xml version="1.0" encoding="UTF-8"?>

<!-- generated on 2026-03-12T12:37:17.383539-05:00 by Eclipse SUMO GUI 1.25.0
<sumoConfiguration xmlns:xsi="http://www.w3.org/2001/XMLSchema-instance" xsi:noNamespaceSchemaLocation="http://sumo.dlr.de/xsd/sumoConfiguration.xsd">

    <input>
        <net-file value="C:\Users\Asus ROG\Desktop\sumo-IA\sumo_rl\nets\construction\sumo-xml\net.net.xml"/>
        <route-files value="C:\Users\Asus ROG\Desktop\sumo-IA\sumo_rl\nets\construction\sumo-xml\rou.route.xml"/>
    </input>

    <time>
        <step-length value="0.2"/>
    </time>

    <processing>
        <lateral-resolution value="0.8"/>
        <collision.action value="remove"/>
        <time-to-teleport value="-1"/>
        <max-depart-delay value="-1"/>
    </processing>

    <ssm_device>
        <device.ssm.probability value="1.0"/>
        <device.ssm.measures value="TTC"/>
        <device.ssm.file value="NULL&#45;&#45;no-step-log"/>
    </ssm_device>

    <traci_server>
        <remote-port value="59669"/>
    </traci_server>

    <random_number>
        <seed value="55"/>
    </random_number>

</sumoConfiguration>
-->

<SSMLog>
    <conflict begin="6.20" end="27.80" ego="car_flow_north_E#18.0" foe="car_flow_south_E#15.1">
        <minTTC time="14.80" position="1321.43,925.79" type="2" value="2.82" speed="2.06"/>
    </conflict>
    <conflict begin="16.80" end="30.00" ego="car_flow_south_E#18.0" foe="car_flow_turn_E#15.0">
        <minTTC time="22.00" position="1331.61,906.64" type="11" value="0.92" speed="4.63"/>
    </conflict>
    <conflict begin="11.00" end="31.20" ego="car_flow_north_E#18.0" foe="car_flow_south_E#15.2">
        <minTTC time="17.80" position="1319.75,931.93" type="3" value="2.24" speed="0.20"/>
    </conflict>
    <conflict begin="13.40" end="31.20" ego="car_flow_north_E#18.1" foe="car_flow_south_E#15.2">
        <minTTC time="20.20" position="1317.93,938.59" type="2" value="2.95" speed="2.43"/>
    </conflict>
    <conflict begin="11.00" end="33.60" ego="car_flow_south_E#15.2" foe="car_flow_north_E#18.0">
        <minTTC time="17.80" position="1319.75,931.93" type="2" value="2.24" speed="3.20"/>
    </conflict>
    <conflict begin="24.60" end="37.00" ego="car_flow_turn_E#6.1" foe="car_flow_north_E#18.1">
        <minTTC time="28.60" position="1334.24,894.21" type="11" value="1.69" speed="9.87"/>
    </conflict>
    <conflict begin="16.80" end="37.60" ego="car_flow_turn_E#15.0" foe="car_flow_south_E#18.0">
        <minTTC time="22.00" position="1331.61,906.64" type="10" value="0.92" speed="8.79"/>
    </conflict>
    <conflict begin="24.60" end="39.40" ego="car_flow_turn_E#6.1" foe="car_flow_north_E#18.2">
        <minTTC time="29.80" position="1329.64,899.85" type="10" value="2.20" speed="6.40"/>
    </conflict>
    <conflict begin="17.20" end="42.00" ego="car_flow_north_E#18.1" foe="car_flow_north_E#18.2">
        <minTTC time="21.40" position="1316.00,945.65" type="3" value="2.80" speed="1.25"/>
    </conflict>
    <conflict begin="24.60" end="42.00" ego="car_flow_north_E#18.1" foe="car_flow_turn_E#6.1">
        <minTTC time="28.60" position="1334.24,894.21" type="10" value="1.69" speed="7.26"/>
    </conflict>
    <conflict begin="17.20" end="42.00" ego="car_flow_north_E#18.2" foe="car_flow_north_E#18.1">
        <minTTC time="21.40" position="1316.00,945.65" type="2" value="2.80" speed="4.59"/>
    </conflict>
    <conflict begin="27.40" end="42.80" ego="car_flow_south_E#18.0" foe="car_flow_south_E#18.1">
        <minTTC time="31.00" position="1329.28,911.03" type="3" value="2.68" speed="0.00"/>
    </conflict>
    <conflict begin="28.40" end="45.20" ego="car_flow_turn_E#15.1" foe="car_flow_south_E#18.1">
        <minTTC time="33.60" position="1336.16,900.91" type="11" value="2.01" speed="7.79"/>
    </conflict>
    <conflict begin="24.60" end="46.00" ego="car_flow_north_E#18.2" foe="car_flow_turn_E#6.1">
        <minTTC time="29.80" position="1329.64,899.85" type="11" value="2.20" speed="7.58"/>
    </conflict>
    <conflict begin="27.00" end="48.80" ego="car_flow_south_E#18.1" foe="car_flow_south_E#18.2">
        <minTTC time="36.40" position="1329.28,911.03" type="3" value="2.08" speed="0.05"/>
    </conflict>
    <conflict begin="27.80" end="42.80" ego="car_flow_south_E#18.1" foe="car_flow_south_E#18.0">
        <minTTC time="31.00" position="1329.28,911.03" type="2" value="2.68" speed="10.42"/>
    </conflict>
    <conflict begin="28.40" end="42.20" ego="car_flow_south_E#18.1" foe="car_flow_turn_E#15.1">
        <minTTC time="33.60" position="1336.16,900.91" type="10" value="2.01" speed="8.00"/>
    </conflict>
    <conflict begin="27.00" end="48.80" ego="car_flow_south_E#18.2" foe="car_flow_south_E#18.1">
        <minTTC time="36.40" position="1329.28,911.03" type="2" value="2.08" speed="3.46"/>
    </conflict>
    <conflict begin="10.40" end="51.00" ego="car_flow_WEST_E#6.1" foe="car_flow_WEST_E#6.2">
        <minTTC time="25.20" position="1336.96,918.74" type="3" value="2.06" speed="0.00"/>
    </conflict>
    <conflict begin="10.40" end="51.00" ego="car_flow_WEST_E#6.2" foe="car_flow_WEST_E#6.1">
        <minTTC time="25.20" position="1336.96,918.74" type="2" value="2.06" speed="4.05"/>
    </conflict>
    <conflict begin="12.60" end="53.80" ego="car_flow_WEST_E#6.2" foe="car_flow_WEST_E#6.3">
        <minTTC time="28.20" position="1343.23,915.86" type="3" value="2.56" speed="0.53"/>
    </conflict>
    <conflict begin="12.60" end="53.80" ego="car_flow_WEST_E#6.3" foe="car_flow_WEST_E#6.2">
        <minTTC time="28.20" position="1343.23,915.86" type="2" value="2.56" speed="3.00"/>
    </conflict>
    <conflict begin="14.80" end="56.00" ego="car_flow_WEST_E#6.3" foe="car_flow_WEST_E#6.4">
        <minTTC time="31.00" position="1349.59,914.65" type="3" value="2.65" speed="0.46"/>
    </conflict>
    <conflict begin="14.80" end="56.00" ego="car_flow_WEST_E#6.4" foe="car_flow_WEST_E#6.3">
        <minTTC time="31.00" position="1349.59,914.65" type="2" value="2.65" speed="2.57"/>
    </conflict>
    <conflict begin="48.60" end="56.80" ego="car_flow_turn_E#10.6" foe="car_flow_turn_E#10.5">
        <minTTC time="52.80" position="1360.57,913.39" type="2" value="2.23" speed="5.48"/>
    </conflict>
    <conflict begin="40.60" end="63.60" ego="car_flow_WEST_E#6.6" foe="car_flow_turn_E#13.1">
        <minTTC time="42.20" position="1367.71,919.59" type="3" value="2.88" speed="0.58"/>
    </conflict>
    <conflict begin="41.00" end="64.20" ego="car_flow_north_E#1.0" foe="car_flow_north_E#1.1">
        <minTTC time="44.60" position="971.58,780.98" type="3" value="2.14" speed="0.00"/>
    </conflict>
    <conflict begin="41.00" end="64.20" ego="car_flow_north_E#1.1" foe="car_flow_north_E#1.0">
        <minTTC time="44.60" position="971.58,780.98" type="2" value="2.14" speed="6.11"/>
    </conflict>
    <conflict begin="40.60" end="63.60" ego="car_flow_turn_E#13.1" foe="car_flow_WEST_E#6.6">
        <minTTC time="42.20" position="1367.71,919.59" type="2" value="2.88" speed="10.54"/>
    </conflict>
    <conflict begin="52.20" end="66.00" ego="car_flow_north_E#1.3" foe="car_flow_E#10.4">
        <minTTC time="54.80" position="963.49,795.29" type="10" value="2.32" speed="9.00"/>
    </conflict>
    <conflict begin="38.60" end="74.40" ego="car_flow_north_E#18.5" foe="car_flow_south_E#15.3">
        <minTTC time="46.20" position="1323.22,919.22" type="2" value="2.01" speed="3.92"/>
    </conflict>
    <conflict begin="40.80" end="78.60" ego="car_flow_north_E#18.5" foe="car_flow_south_E#15.4">
        <minTTC time="48.60" position="1321.33,926.16" type="3" value="2.71" speed="0.73"/>
    </conflict>
    <conflict begin="38.60" end="80.80" ego="car_flow_south_E#15.3" foe="car_flow_north_E#18.5">
        <minTTC time="46.20" position="1323.22,919.22" type="3" value="2.01" speed="0.00"/>
    </conflict>
    <conflict begin="40.80" end="80.80" ego="car_flow_south_E#15.4" foe="car_flow_north_E#18.5">
        <minTTC time="48.60" position="1321.33,926.16" type="2" value="2.71" speed="3.09"/>
    </conflict>
    <conflict begin="42.20" end="82.40" ego="car_flow_through.4" foe="car_flow_turn.1">
        <minTTC time="56.00" position="1346.82,862.58" type="3" value="2.51" speed="0.25"/>
    </conflict>
    <conflict begin="28.00" end="84.60" ego="car_flow_through.2" foe="car_flow_through.3">
        <minTTC time="41.80" position="1342.30,881.79" type="3" value="2.06" speed="0.00"/>
    </conflict>
    <conflict begin="67.60" end="84.60" ego="car_flow_through.2" foe="car_flow_turn_E#13.4">
        <minTTC time="72.80" position="1327.26,930.42" type="6" value="2.95" speed="9.29"/>
    </conflict>
    <conflict begin="28.00" end="84.60" ego="car_flow_through.3" foe="car_flow_through.2">
        <minTTC time="41.80" position="1342.30,881.79" type="2" value="2.06" speed="3.53"/>
    </conflict>
    <conflict begin="42.20" end="86.40" ego="car_flow_turn.1" foe="car_flow_through.4">
        <minTTC time="56.00" position="1346.82,862.58" type="2" value="2.51" speed="2.22"/>
    </conflict>
    <conflict begin="30.40" end="90.00" ego="car_flow_through.3" foe="car_flow_turn_E#15.2">
        <minTTC time="44.60" position="1344.02,875.09" type="3" value="2.73" speed="0.49"/>
    </conflict>
    <conflict begin="30.40" end="90.00" ego="car_flow_turn_E#15.2" foe="car_flow_through.3">
        <minTTC time="44.60" position="1344.02,875.09" type="2" value="2.73" speed="2.46"/>
    </conflict>
    <conflict begin="4.00" end="90.80" ego="car_flow_south_E#15.0" foe="car_flow_south_E#15.1">
        <minTTC time="11.80" position="1323.22,919.22" type="3" value="2.02" speed="0.00"/>
    </conflict>
    <conflict begin="52.20" end="62.00" ego="car_flow_E#10.4" foe="car_flow_north_E#1.3">
        <minTTC time="54.80" position="963.49,795.29" type="11" value="2.32" speed="10.89"/>
    </conflict>
    <conflict begin="47.60" end="92.00" ego="car_flow_turn_E#15.2" foe="car_flow_through.4">
        <minTTC time="52.40" position="1345.36,869.13" type="3" value="2.02" speed="0.00"/>
    </conflict>
    <conflict begin="4.00" end="93.20" ego="car_flow_south_E#15.1" foe="car_flow_south_E#15.0">
        <minTTC time="11.80" position="1323.22,919.22" type="2" value="2.02" speed="3.56"/>
    </conflict>
    <conflict begin="6.20" end="33.60" ego="car_flow_south_E#15.1" foe="car_flow_north_E#18.0">
        <minTTC time="14.80" position="1321.43,925.79" type="3" value="2.82" speed="0.35"/>
    </conflict>
    <conflict begin="13.40" end="37.00" ego="car_flow_south_E#15.2" foe="car_flow_north_E#18.1">
        <minTTC time="20.20" position="1317.93,938.59" type="3" value="2.95" speed="0.61"/>
    </conflict>
    <conflict begin="30.00" end="94.80" ego="car_flow_turn_E#6.1" foe="car_flow_turn_E#6.2">
        <minTTC time="36.00" position="1336.52,889.79" type="3" value="2.06" speed="0.00"/>
    </conflict>
    <conflict begin="47.60" end="92.00" ego="car_flow_through.4" foe="car_flow_turn_E#15.2">
        <minTTC time="52.40" position="1345.36,869.13" type="2" value="2.02" speed="3.91"/>
    </conflict>
    <conflict begin="65.20" end="95.20" ego="car_flow_turn_E#6.9" foe="car_flow_turn_E#6.8">
        <minTTC time="79.00" position="1341.76,870.58" type="2" value="2.60" speed="2.72"/>
    </conflict>
    <conflict begin="27.60" end="96.40" ego="car_flow_turn_E#10.4" foe="car_flow_turn_E#10.3">
        <minTTC time="41.40" position="1348.00,910.19" type="2" value="2.00" speed="3.81"/>
    </conflict>
    <conflict begin="65.20" end="96.40" ego="car_flow_turn_E#6.8" foe="car_flow_turn_E#6.9">
        <minTTC time="79.00" position="1341.76,870.58" type="3" value="2.60" speed="0.50"/>
    </conflict>
    <conflict begin="43.00" end="97.60" ego="car_flow_turn_E#10.4" foe="car_flow_turn_E#10.5">
        <minTTC time="47.60" position="1354.26,911.99" type="3" value="2.03" speed="0.01"/>
    </conflict>
    <conflict begin="67.60" end="104.20" ego="car_flow_turn.2" foe="car_flow_through.8">
        <minTTC time="74.40" position="1356.15,811.51" type="2" value="2.16" speed="5.03"/>
    </conflict>
    <conflict begin="58.20" end="108.00" ego="car_flow_turn_E#15.5" foe="car_flow_through.7">
        <minTTC time="68.20" position="1354.72,824.07" type="3" value="2.68" speed="0.43"/>
    </conflict>
    <conflict begin="58.20" end="108.00" ego="car_flow_through.7" foe="car_flow_turn_E#15.5">
        <minTTC time="68.20" position="1354.72,824.07" type="2" value="2.68" speed="2.37"/>
    </conflict>
    <conflict begin="52.80" end="108.40" ego="car_flow_south_E#15.1" foe="car_flow_south_E#15.2">
        <minTTC time="58.00" position="977.25,804.02" type="3" value="2.02" speed="0.00"/>
    </conflict>
    <conflict begin="52.80" end="108.40" ego="car_flow_south_E#15.2" foe="car_flow_south_E#15.1">
        <minTTC time="58.00" position="977.25,804.02" type="2" value="2.02" speed="3.87"/>
    </conflict>
    <conflict begin="55.60" end="110.00" ego="car_flow_south_E#15.8" foe="car_flow_south_E#15.7">
        <minTTC time="58.40" position="1312.77,957.49" type="2" value="2.48" speed="3.13"/>
    </conflict>
    <conflict begin="60.40" end="110.80" ego="car_flow_through.7" foe="car_flow_through.8">
        <minTTC time="69.80" position="1355.51,817.14" type="3" value="2.93" speed="0.80"/>
    </conflict>
    <conflict begin="60.40" end="110.80" ego="car_flow_through.8" foe="car_flow_through.7">
        <minTTC time="69.80" position="1355.51,817.14" type="2" value="2.93" speed="2.86"/>
    </conflict>
    <conflict begin="67.60" end="100.00" ego="car_flow_through.8" foe="car_flow_turn.2">
        <minTTC time="74.40" position="1356.15,811.51" type="3" value="2.16" speed="0.15"/>
    </conflict>
    <conflict begin="23.60" end="111.60" ego="car_flow_turn_E#6.0" foe="car_flow_south_E#15.0">
        <minTTC time="56.40" position="976.41,807.11" type="3" value="2.00" speed="0.00"/>
    </conflict>
    <conflict begin="23.60" end="111.60" ego="car_flow_south_E#15.0" foe="car_flow_turn_E#6.0">
        <minTTC time="56.40" position="976.41,807.11" type="2" value="2.00" speed="3.99"/>
    </conflict>
    <conflict begin="89.60" end="112.20" ego="car_flow_South_Right.5" foe="car_flow_South_Right.6">
        <minTTC time="95.00" position="1329.82,873.16" type="3" value="2.00" speed="0.00"/>
    </conflict>
    <conflict begin="89.60" end="112.20" ego="car_flow_South_Right.6" foe="car_flow_South_Right.5">
        <minTTC time="95.00" position="1329.82,873.16" type="2" value="2.00" speed="4.04"/>
    </conflict>
    <conflict begin="68.40" end="112.80" ego="car_flow_south_E#15.2" foe="car_flow_turn_E#6.2">
        <minTTC time="73.00" position="983.54,805.69" type="3" value="2.07" speed="0.00"/>
    </conflict>
    <conflict begin="23.60" end="114.00" ego="car_flow_turn_E#6.2" foe="car_flow_turn_E#6.3">
        <minTTC time="37.60" position="1338.75,882.76" type="3" value="2.75" speed="0.90"/>
    </conflict>
    <conflict begin="30.20" end="94.80" ego="car_flow_turn_E#6.2" foe="car_flow_turn_E#6.1">
        <minTTC time="36.00" position="1336.52,889.79" type="2" value="2.06" speed="2.88"/>
    </conflict>
    <conflict begin="68.40" end="112.80" ego="car_flow_turn_E#6.2" foe="car_flow_south_E#15.2">
        <minTTC time="73.00" position="983.54,805.69" type="2" value="2.07" speed="3.92"/>
    </conflict>
    <conflict begin="97.80" end="114.00" ego="car_flow_South_Right.6" foe="car_flow_South_Right.7">
        <minTTC time="101.80" position="1325.10,877.57" type="3" value="2.20" speed="0.01"/>
    </conflict>
    <conflict begin="23.60" end="114.00" ego="car_flow_turn_E#6.3" foe="car_flow_turn_E#6.2">
        <minTTC time="37.60" position="1338.75,882.76" type="2" value="2.75" speed="3.51"/>
    </conflict>
    <conflict begin="97.80" end="114.00" ego="car_flow_South_Right.7" foe="car_flow_South_Right.6">
        <minTTC time="101.80" position="1325.10,877.57" type="2" value="2.20" speed="5.25"/>
    </conflict>
    <conflict begin="71.20" end="114.40" ego="car_flow_south_E#15.0" foe="car_flow_turn_E#6.1">
        <minTTC time="76.20" position="982.70,808.78" type="3" value="2.00" speed="0.00"/>
    </conflict>
    <conflict begin="73.20" end="116.60" ego="car_flow_turn_E#6.4" foe="car_flow_turn_E#10.2">
        <minTTC time="80.20" position="1002.85,810.71" type="3" value="2.36" speed="0.45"/>
    </conflict>
    <conflict begin="71.20" end="114.40" ego="car_flow_turn_E#6.1" foe="car_flow_south_E#15.0">
        <minTTC time="76.20" position="982.70,808.78" type="2" value="2.00" speed="4.17"/>
    </conflict>
    <conflict begin="78.20" end="117.20" ego="car_flow_turn_E#6.1" foe="car_flow_turn_E#10.3">
        <minTTC time="82.80" position="988.99,810.44" type="3" value="2.01" speed="0.01"/>
    </conflict>
    <conflict begin="73.20" end="116.60" ego="car_flow_turn_E#10.2" foe="car_flow_turn_E#6.4">
        <minTTC time="80.20" position="1002.85,810.71" type="2" value="2.36" speed="3.49"/>
    </conflict>
    <conflict begin="27.60" end="118.60" ego="car_flow_turn_E#10.3" foe="car_flow_turn_E#10.4">
        <minTTC time="41.40" position="1348.00,910.19" type="3" value="2.00" speed="0.00"/>
    </conflict>
    <conflict begin="43.60" end="118.60" ego="car_flow_turn_E#10.3" foe="car_flow_turn_E#10.5">
        <minTTC time="86.00" position="995.70,812.12" type="3" value="2.98" speed="0.47"/>
    </conflict>
    <conflict begin="78.20" end="117.20" ego="car_flow_turn_E#10.3" foe="car_flow_turn_E#6.1">
        <minTTC time="82.80" position="988.99,810.44" type="2" value="2.01" speed="4.42"/>
    </conflict>
    <conflict begin="43.00" end="118.80" ego="car_flow_turn_E#10.5" foe="car_flow_turn_E#10.4">
        <minTTC time="47.60" position="1354.26,911.99" type="2" value="2.03" speed="4.26"/>
    </conflict>
    <conflict begin="43.60" end="118.60" ego="car_flow_turn_E#10.5" foe="car_flow_turn_E#10.3">
        <minTTC time="86.00" position="995.70,812.12" type="2" value="2.98" speed="2.15"/>
    </conflict>
    <conflict begin="48.60" end="58.00" ego="car_flow_turn_E#10.5" foe="car_flow_turn_E#10.6">
        <minTTC time="52.80" position="1360.57,913.39" type="3" value="2.23" speed="0.32"/>
    </conflict>
    <conflict begin="77.20" end="119.40" ego="car_flow_south_E#18.6" foe="car_flow_south_E#18.7">
        <minTTC time="83.60" position="1329.28,911.03" type="3" value="2.06" speed="0.00"/>
    </conflict>
    <conflict begin="106.20" end="124.40" ego="car_flow_north_E#18.10" foe="car_flow_turn_E#6.10">
        <minTTC time="108.40" position="1334.24,894.21" type="10" value="2.23" speed="9.06"/>
    </conflict>
    <conflict begin="58.20" end="125.80" ego="car_flow_turn_E#13.4" foe="car_flow_turn_E#13.5">
        <minTTC time="74.80" position="1336.96,918.74" type="3" value="2.04" speed="0.02"/>
    </conflict>
    <conflict begin="67.60" end="84.60" ego="car_flow_turn_E#13.4" foe="car_flow_through.2">
        <minTTC time="72.80" position="1327.26,930.42" type="7" value="2.95" speed="5.46"/>
    </conflict>
    <conflict begin="63.80" end="126.00" ego="car_flow_turn_E#6.7" foe="car_flow_turn_E#6.6">
        <minTTC time="68.20" position="1340.81,874.75" type="2" value="2.02" speed="4.68"/>
    </conflict>
    <conflict begin="58.20" end="125.80" ego="car_flow_turn_E#13.5" foe="car_flow_turn_E#13.4">
        <minTTC time="74.80" position="1336.96,918.74" type="2" value="2.04" speed="3.47"/>
    </conflict>
    <conflict begin="55.60" end="126.20" ego="car_flow_south_E#15.7" foe="car_flow_south_E#15.8">
        <minTTC time="58.40" position="1312.77,957.49" type="3" value="2.48" speed="0.53"/>
    </conflict>
    <conflict begin="70.20" end="132.00" ego="car_flow_turn_E#6.7" foe="car_flow_turn_E#6.8">
        <minTTC time="76.00" position="1340.22,877.02" type="3" value="2.22" speed="0.32"/>
    </conflict>
    <conflict begin="70.20" end="132.00" ego="car_flow_turn_E#6.8" foe="car_flow_turn_E#6.7">
        <minTTC time="76.00" position="1340.22,877.02" type="2" value="2.22" speed="3.83"/>
    </conflict>
    <conflict begin="76.80" end="132.80" ego="car_flow_south_E#18.7" foe="car_flow_south_E#18.8">
        <minTTC time="111.20" position="1329.28,911.03" type="3" value="2.91" speed="0.02"/>
    </conflict>
    <conflict begin="78.20" end="119.00" ego="car_flow_south_E#18.7" foe="car_flow_south_E#18.6">
        <minTTC time="83.60" position="1329.28,911.03" type="2" value="2.06" speed="4.73"/>
    </conflict>
    <conflict begin="76.80" end="132.80" ego="car_flow_south_E#18.8" foe="car_flow_south_E#18.7">
        <minTTC time="111.20" position="1329.28,911.03" type="2" value="2.91" speed="1.35"/>
    </conflict>
    <conflict begin="37.40" end="135.00" ego="car_flow_turn_E#6.5" foe="car_flow_turn_E#6.6">
        <minTTC time="51.20" position="1339.19,881.03" type="3" value="2.08" speed="0.02"/>
    </conflict>
    <conflict begin="37.40" end="135.00" ego="car_flow_turn_E#6.6" foe="car_flow_turn_E#6.5">
        <minTTC time="51.20" position="1339.19,881.03" type="2" value="2.08" speed="3.83"/>
    </conflict>
    <conflict begin="63.80" end="115.00" ego="car_flow_turn_E#6.6" foe="car_flow_turn_E#6.7">
        <minTTC time="68.20" position="1340.81,874.75" type="3" value="2.02" speed="0.00"/>
    </conflict>
    <conflict begin="84.00" end="135.40" ego="car_flow_south_E#18.9" foe="car_flow_south_E#18.10">
        <minTTC time="91.40" position="1323.56,930.11" type="3" value="2.47" speed="0.41"/>
    </conflict>
    <conflict begin="84.00" end="135.40" ego="car_flow_south_E#18.10" foe="car_flow_south_E#18.9">
        <minTTC time="91.40" position="1323.56,930.11" type="2" value="2.47" speed="2.84"/>
    </conflict>
    <conflict begin="115.80" end="136.00" ego="car_flow_South_Right.7" foe="car_flow_South_Right.8">
        <minTTC time="121.00" position="1329.82,873.16" type="3" value="2.02" speed="0.00"/>
    </conflict>
    <conflict begin="115.80" end="136.00" ego="car_flow_South_Right.8" foe="car_flow_South_Right.7">
        <minTTC time="121.00" position="1329.82,873.16" type="2" value="2.02" speed="3.20"/>
    </conflict>
    <conflict begin="75.80" end="136.20" ego="car_flow_turn_E#13.5" foe="car_flow_WEST_E#6.11">
        <minTTC time="81.00" position="1342.83,915.99" type="3" value="2.05" speed="0.01"/>
    </conflict>
    <conflict begin="75.80" end="136.20" ego="car_flow_WEST_E#6.11" foe="car_flow_turn_E#13.5">
        <minTTC time="81.00" position="1342.83,915.99" type="2" value="2.05" speed="3.33"/>
    </conflict>
    <conflict begin="88.60" end="136.80" ego="car_flow_south_E#18.10" foe="car_flow_south_E#18.11">
        <minTTC time="95.40" position="1321.93,936.09" type="3" value="2.08" speed="0.12"/>
    </conflict>
    <conflict begin="88.60" end="136.80" ego="car_flow_south_E#18.11" foe="car_flow_south_E#18.10">
        <minTTC time="95.40" position="1321.93,936.09" type="2" value="2.08" speed="4.03"/>
    </conflict>
    <conflict begin="120.40" end="137.20" ego="car_flow_South_Right.8" foe="car_flow_South_Right.9">
        <minTTC time="125.60" position="1325.07,877.59" type="3" value="2.06" speed="0.05"/>
    </conflict>
    <conflict begin="114.80" end="138.00" ego="car_flow_south_E#18.11" foe="car_flow_south_E#18.12">
        <minTTC time="120.80" position="1321.95,936.00" type="3" value="2.04" speed="0.02"/>
    </conflict>
    <conflict begin="114.80" end="138.00" ego="car_flow_south_E#18.12" foe="car_flow_south_E#18.11">
        <minTTC time="120.80" position="1321.95,936.00" type="2" value="2.04" speed="4.94"/>
    </conflict>
    <conflict begin="81.80" end="138.40" ego="car_flow_WEST_E#6.11" foe="car_flow_WEST_E#6.12">
        <minTTC time="87.20" position="1349.19,914.72" type="3" value="2.04" speed="0.01"/>
    </conflict>
    <conflict begin="120.40" end="137.20" ego="car_flow_South_Right.9" foe="car_flow_South_Right.8">
        <minTTC time="125.60" position="1325.07,877.59" type="2" value="2.06" speed="3.99"/>
    </conflict>
    <conflict begin="76.00" end="142.20" ego="car_flow_WEST_E#6.12" foe="car_flow_turn_E#13.6">
        <minTTC time="90.80" position="1355.61,916.11" type="3" value="2.20" speed="0.17"/>
    </conflict>
    <conflict begin="81.80" end="138.40" ego="car_flow_WEST_E#6.12" foe="car_flow_WEST_E#6.11">
        <minTTC time="87.20" position="1349.19,914.72" type="2" value="2.04" speed="3.45"/>
    </conflict>
    <conflict begin="76.00" end="142.20" ego="car_flow_turn_E#13.6" foe="car_flow_WEST_E#6.12">
        <minTTC time="90.80" position="1355.61,916.11" type="2" value="2.20" speed="2.98"/>
    </conflict>
    <conflict begin="78.40" end="144.60" ego="car_flow_turn_E#13.6" foe="car_flow_WEST_E#6.13">
        <minTTC time="92.40" position="1362.69,918.15" type="3" value="2.88" speed="0.99"/>
    </conflict>
    <conflict begin="78.40" end="144.60" ego="car_flow_WEST_E#6.13" foe="car_flow_turn_E#13.6">
        <minTTC time="92.40" position="1362.69,918.15" type="2" value="2.88" speed="3.40"/>
    </conflict>
    <conflict begin="101.40" end="146.80" ego="car_flow_WEST_E#6.13" foe="car_flow_turn_E#13.7">
        <minTTC time="106.20" position="1367.96,919.66" type="3" value="2.02" speed="0.00"/>
    </conflict>
    <conflict begin="48.00" end="148.60" ego="car_flow_E#10.6" foe="car_flow_E#10.5">
        <minTTC time="71.60" position="948.08,787.57" type="2" value="2.37" speed="3.50"/>
    </conflict>
    <conflict begin="48.00" end="149.40" ego="car_flow_E#10.5" foe="car_flow_E#10.6">
        <minTTC time="71.60" position="948.08,787.57" type="3" value="2.37" speed="0.45"/>
    </conflict>
    <conflict begin="95.00" end="150.60" ego="car_flow_turn_E#13.7" foe="car_flow_turn_E#13.8">
        <minTTC time="109.40" position="1374.59,921.56" type="3" value="2.88" speed="0.47"/>
    </conflict>
    <conflict begin="101.40" end="146.80" ego="car_flow_turn_E#13.7" foe="car_flow_WEST_E#6.13">
        <minTTC time="106.20" position="1367.96,919.66" type="2" value="2.02" speed="4.37"/>
    </conflict>
    <conflict begin="95.00" end="150.60" ego="car_flow_turn_E#13.8" foe="car_flow_turn_E#13.7">
        <minTTC time="109.40" position="1374.59,921.56" type="2" value="2.88" speed="2.24"/>
    </conflict>
    <conflict begin="96.40" end="155.00" ego="car_flow_north_E#1.6" foe="car_flow_north_E#1.7">
        <minTTC time="113.00" position="971.58,780.98" type="3" value="2.05" speed="0.00"/>
    </conflict>
    <conflict begin="96.40" end="155.00" ego="car_flow_north_E#1.7" foe="car_flow_north_E#1.6">
        <minTTC time="113.00" position="971.58,780.98" type="2" value="2.05" speed="4.47"/>
    </conflict>
    <conflict begin="115.40" end="147.00" ego="car_flow_E#10.2" foe="car_flow_E#10.3">
        <minTTC time="119.20" position="1319.95,891.03" type="3" value="2.17" speed="0.00"/>
    </conflict>
    <conflict begin="143.00" end="155.60" ego="car_flow_E#10.2" foe="car_flow_turn_E#6.14">
        <minTTC time="145.20" position="1334.24,894.21" type="10" value="2.74" speed="3.54"/>
    </conflict>
    <conflict begin="113.00" end="156.20" ego="car_flow_north_E#1.7" foe="car_flow_north_E#1.8">
        <minTTC time="118.20" position="972.97,774.58" type="3" value="2.11" speed="0.06"/>
    </conflict>
    <conflict begin="118.20" end="153.20" ego="ghost" foe="car_flow_E#10.4">
        <minTTC time="123.20" position="1224.09,868.05" type="3" value="2.00" speed="0.00"/>
    </conflict>
    <conflict begin="121.80" end="155.60" ego="ghost" foe="car_flow_E#10.7">
        <minTTC time="135.60" position="1224.09,868.05" type="3" value="2.02" speed="0.00"/>
    </conflict>
    <conflict begin="64.00" end="157.20" ego="car_flow_E#10.3" foe="car_flow_E#10.5">
        <minTTC time="68.60" position="954.74,789.35" type="3" value="2.07" speed="0.00"/>
    </conflict>
    <conflict begin="115.40" end="144.80" ego="car_flow_E#10.3" foe="car_flow_E#10.2">
        <minTTC time="119.20" position="1319.95,891.03" type="2" value="2.17" speed="5.43"/>
    </conflict>
    <conflict begin="64.00" end="157.20" ego="car_flow_E#10.5" foe="car_flow_E#10.3">
        <minTTC time="68.60" position="954.74,789.35" type="2" value="2.07" speed="3.91"/>
    </conflict>
    <conflict begin="129.40" end="158.40" ego="ghost" foe="car_flow_E#10.11">
        <minTTC time="141.20" position="1224.09,868.05" type="3" value="2.03" speed="0.00"/>
    </conflict>
    <conflict begin="121.00" end="150.80" ego="car_flow_E#10.10" foe="car_flow_E#10.9">
        <minTTC time="129.60" position="1294.43,884.03" type="2" value="2.44" speed="3.01"/>
    </conflict>
    <conflict begin="83.00" end="158.40" ego="car_flow_E#10.6" foe="car_flow_E#10.9">
        <minTTC time="87.60" position="942.18,785.99" type="3" value="2.01" speed="0.00"/>
    </conflict>
    <conflict begin="83.00" end="158.40" ego="car_flow_E#10.9" foe="car_flow_E#10.6">
        <minTTC time="87.60" position="942.18,785.99" type="2" value="2.01" speed="4.00"/>
    </conflict>
    <conflict begin="121.00" end="152.00" ego="car_flow_E#10.9" foe="car_flow_E#10.10">
        <minTTC time="129.60" position="1294.43,884.03" type="3" value="2.44" speed="0.42"/>
    </conflict>
    <conflict begin="135.60" end="153.20" ego="car_flow_E#10.10" foe="car_flow_E#10.4">
        <minTTC time="136.80" position="1288.17,883.97" type="3" value="2.99" speed="0.01"/>
    </conflict>
    <conflict begin="103.40" end="159.40" ego="car_flow_north_E#1.8" foe="car_flow_north_E#1.9">
        <minTTC time="121.60" position="974.55,768.04" type="3" value="2.36" speed="0.32"/>
    </conflict>